(PID.TID 0000.0001) iHOP Print File
(PID.TID 0000.0001) 
(PID.TID 0000.0001) iHOP -   bcg+ihop 1/12deg
(PID.TID 0000.0001) ___________________________________________________________
(PID.TID 0000.0001) 
(PID.TID 0000.0001) GCM iter          1 at time =              1200.00 [sec]
(PID.TID 0000.0001) GCM cal date 20210101  2000  1   1
(PID.TID 0000.0001) 
(PID.TID 0000.0001) Frequency    350.0000 [Hz]
(PID.TID 0000.0001) ___________________________________________________________
(PID.TID 0000.0001) 
(PID.TID 0000.0001) Eigenrays + Arrivals run, ASCII file output
(PID.TID 0000.0001) Point source (cylindrical coordinates)
(PID.TID 0000.0001) Rectilinear receiver grid: Receivers at ( Rr( ir ), Rz( ir ) ) )
(PID.TID 0000.0001) N x 2D calculation (neglects horizontal refraction)
(PID.TID 0000.0001) ___________________________________________________________
(PID.TID 0000.0001) 
(PID.TID 0000.0001) Interior options:
(PID.TID 0000.0001)     Quad approximation to SSP
(PID.TID 0000.0001)     Attenuation units: dB/mkHz
(PID.TID 0000.0001) 
(PID.TID 0000.0001) Depth =    1821.43 m
(PID.TID 0000.0001) 
(PID.TID 0000.0001) Top options: QVF
(PID.TID 0000.0001)     Surface modeled as a VACUUM
(PID.TID 0000.0001) 
(PID.TID 0000.0001) Bottom options: A*
(PID.TID 0000.0001)     Bathymetry file selected
(PID.TID 0000.0001)     ACOUSTO-ELASTIC half-space
(PID.TID 0000.0001) 
(PID.TID 0000.0001)    z [m]     alphaR [m/s]   betaR  rho [g/cm^3]  alphaI     betaI
(PID.TID 0000.0001)    1821.43      1650.00      0.00     1.80       0.0000    0.0000
(PID.TID 0000.0001) 
(PID.TID 0000.0001) ___________________________________________________________
(PID.TID 0000.0001) 
(PID.TID 0000.0001) Number of Source depths,   Sz =          1
(PID.TID 0000.0001) Source depths,   Sz (m)
(PID.TID 0000.0001)    1000.00
(PID.TID 0000.0001) 
(PID.TID 0000.0001) 
(PID.TID 0000.0001) ___________________________________________________________
(PID.TID 0000.0001) 
(PID.TID 0000.0001) Number of Receiver depths, Rz =          1
(PID.TID 0000.0001) Receiver depths, Rz (m)
(PID.TID 0000.0001)    1000.00
(PID.TID 0000.0001) 
(PID.TID 0000.0001) 
(PID.TID 0000.0001) ___________________________________________________________
(PID.TID 0000.0001) 
(PID.TID 0000.0001) Number of Receiver ranges, Rr =          1
(PID.TID 0000.0001) Receiver ranges, Rr (km)
(PID.TID 0000.0001)    348.700
(PID.TID 0000.0001) 
(PID.TID 0000.0001) ___________________________________________________________
(PID.TID 0000.0001) 
(PID.TID 0000.0001) Number of beams in elevation   =         52
(PID.TID 0000.0001) Beam take-off angles (degrees)
(PID.TID 0000.0001)      -26.000     -24.980     -23.961     -22.941     -21.922     -20.902     -19.882     -18.863     -17.843     -16.824
(PID.TID 0000.0001)  ...    26.000000
(PID.TID 0000.0001) 
(PID.TID 0000.0001) ___________________________________________________________
(PID.TID 0000.0001) 
(PID.TID 0000.0001)  Step length, deltas =   182.1     m
(PID.TID 0000.0001) 
(PID.TID 0000.0001)  Maximum ray range, Box%R =   348.9     km
(PID.TID 0000.0001)  Maximum ray depth, Box%Z =   1821.     m
(PID.TID 0000.0001)  No beam shift in effect
(PID.TID 0000.0001) 
(PID.TID 0000.0001) ___________________________________________________________
(PID.TID 0000.0001) 
(PID.TID 0000.0001) Top: No ATIFile. Assume flat top. Set +/- infty.
(PID.TID 0000.0001) ___________________________________________________________
(PID.TID 0000.0001) 
(PID.TID 0000.0001) Bot: Using bottom-bathymetry file
(PID.TID 0000.0001)   BTYFile = bcg.hd.bty
(PID.TID 0000.0001)   Curvilinear Interpolation
(PID.TID 0000.0001)   Number of bathymetry points =          4
(PID.TID 0000.0001) 
(PID.TID 0000.0001) Short format (bathymetry only)
(PID.TID 0000.0001)  Range (km)  Depth (m)
(PID.TID 0000.0001)    0.00      0.180E+04
(PID.TID 0000.0001)    100.      0.180E+04
(PID.TID 0000.0001)    200.      0.180E+04
(PID.TID 0000.0001)    400.      0.180E+04
(PID.TID 0000.0001) ___________________________________________________________
(PID.TID 0000.0001) 
(PID.TID 0000.0001) Sound Speed Field
(PID.TID 0000.0001) 
(PID.TID 0000.0001) Profile option: Q
(PID.TID 0000.0001) 
(PID.TID 0000.0001) Using range-dependent sound speed
(PID.TID 0000.0001) Number of SSP ranges =         30
(PID.TID 0000.0001) Number of SSP depths =         17
(PID.TID 0000.0001) 
(PID.TID 0000.0001) Profile ranges [km]:
(PID.TID 0000.0001)                 0.00     12.07     24.14     36.21     48.28     60.34     72.41     84.48     96.55    108.62    120.69    132.76    144.83    156.90    168.97    181.03    193.10    205.17    217.24    229.31    241.38    253.45    265.52    277.59    289.66    301.72    313.79    325.86    337.93    350.00
(PID.TID 0000.0001) 
(PID.TID 0000.0001) Sound speed matrix:
(PID.TID 0000.0001)  Depth [m ]     Soundspeed [m/s]
(PID.TID 0000.0001)       0.00      0.00      0.00      0.00      0.00      0.00      0.00      0.00      0.00      0.00      0.00      0.00      0.00      0.00      0.00      0.00      0.00      0.00      0.00      0.00      0.00      0.00      0.00      0.00      0.00      0.00      0.00      0.00      0.00      0.00      0.00
(PID.TID 0000.0001)      25.00      0.00      0.00      0.00      0.00      0.00      0.00      0.00      0.00      0.00      0.00      0.00      0.00      0.00      0.00      0.00      0.00      0.00      0.00      0.00      0.00      0.00      0.00      0.00      0.00      0.00      0.00      0.00      0.00      0.00      0.00
(PID.TID 0000.0001)      80.00      0.00      0.00      0.00      0.00      0.00      0.00      0.00      0.00      0.00      0.00      0.00      0.00      0.00      0.00      0.00      0.00      0.00      0.00      0.00      0.00      0.00      0.00      0.00      0.00      0.00      0.00      0.00      0.00      0.00      0.00
(PID.TID 0000.0001)     145.00      0.00      0.00      0.00      0.00      0.00      0.00      0.00      0.00      0.00      0.00      0.00      0.00      0.00      0.00      0.00      0.00      0.00      0.00      0.00      0.00      0.00      0.00      0.00      0.00      0.00      0.00      0.00      0.00      0.00      0.00
(PID.TID 0000.0001)     220.00      0.00      0.00      0.00      0.00      0.00      0.00      0.00      0.00      0.00      0.00      0.00      0.00      0.00      0.00      0.00      0.00      0.00      0.00      0.00      0.00      0.00      0.00      0.00      0.00      0.00      0.00      0.00      0.00      0.00      0.00
(PID.TID 0000.0001)     305.00      0.00      0.00      0.00      0.00      0.00      0.00      0.00      0.00      0.00      0.00      0.00      0.00      0.00      0.00      0.00      0.00      0.00      0.00      0.00      0.00      0.00      0.00      0.00      0.00      0.00      0.00      0.00      0.00      0.00      0.00
(PID.TID 0000.0001)     400.00      0.00      0.00      0.00      0.00      0.00      0.00      0.00      0.00      0.00      0.00      0.00      0.00      0.00      0.00      0.00      0.00      0.00      0.00      0.00      0.00      0.00      0.00      0.00      0.00      0.00      0.00      0.00      0.00      0.00      0.00
(PID.TID 0000.0001)     505.00      0.00      0.00      0.00      0.00      0.00      0.00      0.00      0.00      0.00      0.00      0.00      0.00      0.00      0.00      0.00      0.00      0.00      0.00      0.00      0.00      0.00      0.00      0.00      0.00      0.00      0.00      0.00      0.00      0.00      0.00
(PID.TID 0000.0001)     620.00      0.00      0.00      0.00      0.00      0.00      0.00      0.00      0.00      0.00      0.00      0.00      0.00      0.00      0.00      0.00      0.00      0.00      0.00      0.00      0.00      0.00      0.00      0.00      0.00      0.00      0.00      0.00      0.00      0.00      0.00
(PID.TID 0000.0001)     745.00      0.00      0.00      0.00      0.00      0.00      0.00      0.00      0.00      0.00      0.00      0.00      0.00      0.00      0.00      0.00      0.00      0.00      0.00      0.00      0.00      0.00      0.00      0.00      0.00      0.00      0.00      0.00      0.00      0.00      0.00
(PID.TID 0000.0001)     880.00      0.00      0.00      0.00      0.00      0.00      0.00      0.00      0.00      0.00      0.00      0.00      0.00      0.00      0.00      0.00      0.00      0.00      0.00      0.00      0.00      0.00      0.00      0.00      0.00      0.00      0.00      0.00      0.00      0.00      0.00
(PID.TID 0000.0001)    1025.00      0.00      0.00      0.00      0.00      0.00      0.00      0.00      0.00      0.00      0.00      0.00      0.00      0.00      0.00      0.00      0.00      0.00      0.00      0.00      0.00      0.00      0.00      0.00      0.00      0.00      0.00      0.00      0.00      0.00      0.00
(PID.TID 0000.0001)    1180.00      0.00      0.00      0.00      0.00      0.00      0.00      0.00      0.00      0.00      0.00      0.00      0.00      0.00      0.00      0.00      0.00      0.00      0.00      0.00      0.00      0.00      0.00      0.00      0.00      0.00      0.00      0.00      0.00      0.00      0.00
(PID.TID 0000.0001)    1345.00      0.00      0.00      0.00      0.00      0.00      0.00      0.00      0.00      0.00      0.00      0.00      0.00      0.00      0.00      0.00      0.00      0.00      0.00      0.00      0.00      0.00      0.00      0.00      0.00      0.00      0.00      0.00      0.00      0.00      0.00
(PID.TID 0000.0001)    1520.00      0.00      0.00      0.00      0.00      0.00      0.00      0.00      0.00      0.00      0.00      0.00      0.00      0.00      0.00      0.00      0.00      0.00      0.00      0.00      0.00      0.00      0.00      0.00      0.00      0.00      0.00      0.00      0.00      0.00      0.00
(PID.TID 0000.0001)    1705.00      0.00      0.00      0.00      0.00      0.00      0.00      0.00      0.00      0.00      0.00      0.00      0.00      0.00      0.00      0.00      0.00      0.00      0.00      0.00      0.00      0.00      0.00      0.00      0.00      0.00      0.00      0.00      0.00      0.00      0.00
(PID.TID 0000.0001)    1821.43      0.00      0.00      0.00      0.00      0.00      0.00      0.00      0.00      0.00      0.00      0.00      0.00      0.00      0.00      0.00      0.00      0.00      0.00      0.00      0.00      0.00      0.00      0.00      0.00      0.00      0.00      0.00      0.00      0.00      0.00
(PID.TID 0000.0001) ___________________________________________________________
(PID.TID 0000.0001) 
(PID.TID 0000.0001) Tracing ray       1    -26.00
(PID.TID 0000.0001) WARNING: TraceRay2D: Check storage for ray trajectory
(PID.TID 0000.0001) Tracing ray       2    -24.98
(PID.TID 0000.0001) WARNING: TraceRay2D: Check storage for ray trajectory
(PID.TID 0000.0001) Tracing ray       3    -23.96
(PID.TID 0000.0001) WARNING: TraceRay2D: Check storage for ray trajectory
(PID.TID 0000.0001) Tracing ray       4    -22.94
(PID.TID 0000.0001) WARNING: TraceRay2D: Check storage for ray trajectory
(PID.TID 0000.0001) Tracing ray       5    -21.92
(PID.TID 0000.0001) WARNING: TraceRay2D: Check storage for ray trajectory
(PID.TID 0000.0001) Tracing ray       6    -20.90
(PID.TID 0000.0001) WARNING: TraceRay2D: Check storage for ray trajectory
(PID.TID 0000.0001) Tracing ray       7    -19.88
(PID.TID 0000.0001) WARNING: TraceRay2D: Check storage for ray trajectory
(PID.TID 0000.0001) Tracing ray       8    -18.86
(PID.TID 0000.0001) WARNING: TraceRay2D: Check storage for ray trajectory
(PID.TID 0000.0001) Tracing ray       9    -17.84
(PID.TID 0000.0001) WARNING: TraceRay2D: Check storage for ray trajectory
(PID.TID 0000.0001) Tracing ray      10    -16.82
(PID.TID 0000.0001) WARNING: TraceRay2D: Check storage for ray trajectory
(PID.TID 0000.0001) Tracing ray      11    -15.80
(PID.TID 0000.0001) WARNING: TraceRay2D: Check storage for ray trajectory
(PID.TID 0000.0001) Tracing ray      12    -14.78
(PID.TID 0000.0001) WARNING: TraceRay2D: Check storage for ray trajectory
(PID.TID 0000.0001) Tracing ray      13    -13.76
(PID.TID 0000.0001) WARNING: TraceRay2D: Check storage for ray trajectory
(PID.TID 0000.0001) Tracing ray      14    -12.75
(PID.TID 0000.0001) WARNING: TraceRay2D: Check storage for ray trajectory
(PID.TID 0000.0001) Tracing ray      15    -11.73
(PID.TID 0000.0001) WARNING: TraceRay2D: Check storage for ray trajectory
(PID.TID 0000.0001) Tracing ray      16    -10.71
(PID.TID 0000.0001) WARNING: TraceRay2D: Check storage for ray trajectory
(PID.TID 0000.0001) Tracing ray      17     -9.69
(PID.TID 0000.0001) WARNING: TraceRay2D: Check storage for ray trajectory
(PID.TID 0000.0001) Tracing ray      18     -8.67
(PID.TID 0000.0001) WARNING: TraceRay2D: Check storage for ray trajectory
(PID.TID 0000.0001) Tracing ray      19     -7.65
(PID.TID 0000.0001) WARNING: TraceRay2D: Check storage for ray trajectory
(PID.TID 0000.0001) Tracing ray      20     -6.63
(PID.TID 0000.0001) WARNING: TraceRay2D: Check storage for ray trajectory
(PID.TID 0000.0001) Tracing ray      21     -5.61
(PID.TID 0000.0001) WARNING: TraceRay2D: Check storage for ray trajectory
(PID.TID 0000.0001) Tracing ray      22     -4.59
(PID.TID 0000.0001) WARNING: TraceRay2D: Check storage for ray trajectory
(PID.TID 0000.0001) Tracing ray      23     -3.57
(PID.TID 0000.0001) WARNING: TraceRay2D: Check storage for ray trajectory
(PID.TID 0000.0001) Tracing ray      24     -2.55
(PID.TID 0000.0001) WARNING: TraceRay2D: Check storage for ray trajectory
(PID.TID 0000.0001) Tracing ray      25     -1.53
(PID.TID 0000.0001) WARNING: TraceRay2D: Check storage for ray trajectory
(PID.TID 0000.0001) Tracing ray      26     -0.51
(PID.TID 0000.0001) WARNING: TraceRay2D: Check storage for ray trajectory
(PID.TID 0000.0001) Tracing ray      27      0.51
(PID.TID 0000.0001) WARNING: TraceRay2D: Check storage for ray trajectory
(PID.TID 0000.0001) Tracing ray      28      1.53
(PID.TID 0000.0001) WARNING: TraceRay2D: Check storage for ray trajectory
(PID.TID 0000.0001) Tracing ray      29      2.55
(PID.TID 0000.0001) WARNING: TraceRay2D: Check storage for ray trajectory
(PID.TID 0000.0001) Tracing ray      30      3.57
(PID.TID 0000.0001) WARNING: TraceRay2D: Check storage for ray trajectory
(PID.TID 0000.0001) Tracing ray      31      4.59
(PID.TID 0000.0001) WARNING: TraceRay2D: Check storage for ray trajectory
(PID.TID 0000.0001) Tracing ray      32      5.61
(PID.TID 0000.0001) WARNING: TraceRay2D: Check storage for ray trajectory
(PID.TID 0000.0001) Tracing ray      33      6.63
(PID.TID 0000.0001) WARNING: TraceRay2D: Check storage for ray trajectory
(PID.TID 0000.0001) Tracing ray      34      7.65
(PID.TID 0000.0001) WARNING: TraceRay2D: Check storage for ray trajectory
(PID.TID 0000.0001) Tracing ray      35      8.67
(PID.TID 0000.0001) WARNING: TraceRay2D: Check storage for ray trajectory
(PID.TID 0000.0001) Tracing ray      36      9.69
(PID.TID 0000.0001) WARNING: TraceRay2D: Check storage for ray trajectory
(PID.TID 0000.0001) Tracing ray      37     10.71
(PID.TID 0000.0001) WARNING: TraceRay2D: Check storage for ray trajectory
(PID.TID 0000.0001) Tracing ray      38     11.73
(PID.TID 0000.0001) WARNING: TraceRay2D: Check storage for ray trajectory
(PID.TID 0000.0001) Tracing ray      39     12.75
(PID.TID 0000.0001) WARNING: TraceRay2D: Check storage for ray trajectory
(PID.TID 0000.0001) Tracing ray      40     13.76
(PID.TID 0000.0001) WARNING: TraceRay2D: Check storage for ray trajectory
(PID.TID 0000.0001) Tracing ray      41     14.78
(PID.TID 0000.0001) WARNING: TraceRay2D: Check storage for ray trajectory
(PID.TID 0000.0001) Tracing ray      42     15.80
(PID.TID 0000.0001) WARNING: TraceRay2D: Check storage for ray trajectory
(PID.TID 0000.0001) Tracing ray      43     16.82
(PID.TID 0000.0001) WARNING: TraceRay2D: Check storage for ray trajectory
(PID.TID 0000.0001) Tracing ray      44     17.84
(PID.TID 0000.0001) WARNING: TraceRay2D: Check storage for ray trajectory
(PID.TID 0000.0001) Tracing ray      45     18.86
(PID.TID 0000.0001) WARNING: TraceRay2D: Check storage for ray trajectory
(PID.TID 0000.0001) Tracing ray      46     19.88
(PID.TID 0000.0001) WARNING: TraceRay2D: Check storage for ray trajectory
(PID.TID 0000.0001) Tracing ray      47     20.90
(PID.TID 0000.0001) WARNING: TraceRay2D: Check storage for ray trajectory
(PID.TID 0000.0001) Tracing ray      48     21.92
(PID.TID 0000.0001) WARNING: TraceRay2D: Check storage for ray trajectory
(PID.TID 0000.0001) Tracing ray      49     22.94
(PID.TID 0000.0001) WARNING: TraceRay2D: Check storage for ray trajectory
(PID.TID 0000.0001) Tracing ray      50     23.96
(PID.TID 0000.0001) WARNING: TraceRay2D: Check storage for ray trajectory
(PID.TID 0000.0001) Tracing ray      51     24.98
(PID.TID 0000.0001) WARNING: TraceRay2D: Check storage for ray trajectory
(PID.TID 0000.0001) Tracing ray      52     26.00
(PID.TID 0000.0001) WARNING: TraceRay2D: Check storage for ray trajectory
(PID.TID 0000.0001) 
(PID.TID 0000.0001) CPU Time =        3.13    s
